[General]
network = BlockchainNet
sim-time-limit = 100s
*.users[*].icon = "device/laptop"
*.miners[*].icon = "device/server"
**.conn.display-name = true